##CIF_1.1

data_sm_global
#Used dictionaries
loop_
_audit_conform_dict_name
_audit_conform_dict_version
_audit_conform_dict_location
cif_core.dic 	2.4.2 	.
cif_pd.dic 		1.0.1 	.
cif_sm.dic 		0.1 	'redaktion.landolt-boernstein(at)springer.com'

#About this content and reference
_sm_credits_copyright
;PAULING FILE Multinaries Edition - 2012. SpringerMaterials Release 2014.
http://www.paulingfile.com
Unique LPF ID Number SD1939367
Project Coordinator: Shuichi Iwata
Section-Editors: Karin Cenzual (Crystal Structures), Hiroaki Okamoto (Phase 
Diagrams), Fritz Hulliger (Physical Properties)
(c) Springer & Material Phases Data System (MPDS), Switzerland & National 
Institute for Materials Science (NIMS), Japan 2014.
(Data generated pre-2002: (c) Springer & MPDS & NIMS; 
post-2001: (c) Springer & MPDS)
All Rights Reserved. Version 2014.06.
;

_audit_creation_method
;This data have been compiled from the crystallographic datasheet for 
"Nb12WO33 Crystal Structure" 
taken from SpringerMaterials (sm_isp_sd_1939367).
;

_publ_section_references
;Tabero P.: <i>Thermal expansion of phases formed in the system Nb<sub>2</sub>O<sub>5</sub>-MoO<sub>3</sub></i>. Journal of Thermal Analysis and Calorimetry <b>74</b> (2003) 491-496.
;

#Phase classification
_sm_phase_labels				'Nb12WO33'
_chemical_name_mineral			''
_sm_chemical_compound_class		'oxide'
_sm_phase_prototype				'Nb12 WO33 '
_sm_pearson_symbol				'mS92'
_symmetry_Int_Tables_number		5
_sm_sample_details
;sample prepared from WO<sub>3</sub>, Nb<sub>2</sub>O<sub>5</sub>, 
powder (determination of cell parameters)
;
_sm_measurement_details
;automatic diffractometer (determination of cell parameters), 
X-rays (determination of cell parameters), 
<i>T</i> = 298 K (determination of cell parameters)
;
_sm_interpretation_details
;cell parameters determined and structure type assigned
;

data_sm_isp_SD1939367-standardized_unitcell
#Cell Parameters
_cell_length_a					22.34
_cell_length_b					3.8228
_cell_length_c					17.765
_cell_angle_alpha				90
_cell_angle_beta				123.4
_cell_angle_gamma				90
_sm_length_ratio_ab				5.844
_sm_length_ratio_bc				0.215
_sm_length_ratio_ca				0.795
_cell_volume 					1266.6
_symmetry_space_group_name_H-M	'C121'
_symmetry_Int_Tables_number		5
_cell_formula_units_Z			2
_sm_cell_transformation
;No transformation from published to standardized cell parameters necessary.
;

#Atom Coordinates
loop_
_atom_site_label
_atom_site_type_symbol
_atom_site_Wyckoff_symbol
_sm_site_symmetry
_atom_site_fract_x
_atom_site_fract_y
_atom_site_fract_z
_atom_site_occupancy
_sm_coordination_number
_sm_atomic_environment_type
O1 'O' .4c .1 0.028 0 0.1753 1 ? '?'
O2 'O' .4c .1 0.0446 0 0.3417 1 ? '?'
O3 'O' .4c .1 0.068 0 0.5133 1 ? '?'
Nb1 'Nb' .4c .1 0.0835 0 0.1207 1 ? '?'
O4 'O' .4c .1 0.0835 0.5 0.1207 1 ? '?'
Nb2 'Nb' .4c .1 0.1337 0 0.4577 1 ? '?'
O5 'O' .4c .1 0.1428 0 0.0706 1 ? '?'
O6 'O' .4c .1 0.1679 0 0.2428 1 ? '?'
O7 'O' .4c .1 0.1949 0 0.4164 1 ? '?'
Nb3 'Nb' .4c .1 0.2043 0 0.0285 1 ? '?'
O8 'O' .4c .1 0.2064 0 0.5783 1 ? '?'
O9 'O' .4c .1 0.2384 0.5 0.0188 1 ? '?'
Nb4 'Nb' .4c .1 0.2525 0 0.3642 1 ? '?'
O10 'O' .4c .1 0.292 0 0.1502 1 ? '?'
O11 'O' .4c .1 0.3164 0 0.3211 1 ? '?'
O12 'O' .4c .1 0.3427 0 0.4853 1 ? '?'
Nb5 'Nb' .4c .1 0.3718 0 0.2702 1 ? '?'
O13 'O' .4c .1 0.3789 0.5 0.0937 1 ? '?'
O14 'O' .4c .1 0.407 0.5 0.257 1 ? '?'
O15 'O' .4c .1 0.4437 0 0.2431 1 ? '?'
Nb6 'Nb' .4c .1 0.4619 0.5 0.2122 1 ? '?'
O16 'O' .4c .1 0.4676 0 0.4063 1 ? '?'
W1 'W' .2b .2 0 0.25 0.5 1 ? '?'
O17 'O' .2a .2 0 0 0 1 ? '?'

_sm_atom_site_transformation
;No transformation from published to standardized cell parameters necessary.
Atom coordinates assigned by editor.
;

data_sm_isp_SD1939367-published_cell
#Cell Parameters
_cell_length_a					22.34(4)
_cell_length_b					3.8228(8)
_cell_length_c					17.765(3)
_cell_angle_alpha				90
_cell_angle_beta				123.4(3)
_cell_angle_gamma				90
_sm_length_ratio_ab				5.844
_sm_length_ratio_bc				0.215
_sm_length_ratio_ca				0.795
_cell_volume 					1266.59
_symmetry_space_group_name_H-M	'C121'
_symmetry_Int_Tables_number		5
_cell_formula_units_Z			2

#Atom Coordinates
loop_
_atom_site_label
_atom_site_type_symbol
_atom_site_Wyckoff_symbol
_sm_site_symmetry
_atom_site_fract_x
_atom_site_fract_y
_atom_site_fract_z
_atom_site_occupancy
_sm_coordination_number
_sm_atomic_environment_type
? ? ? ? ? ? ? ? ? ?

data_sm_isp_SD1939367-niggli_reduced_cell
#Cell Parameters
_cell_length_a					3.8228
_cell_length_b					11.3324
_cell_length_c					15.0183
_cell_angle_alpha				83.527
_cell_angle_beta				82.688
_cell_angle_gamma				80.29
_sm_length_ratio_ab				0.337
_sm_length_ratio_bc				0.755
_sm_length_ratio_ca				3.929
_cell_volume 					633.3
_symmetry_space_group_name_H-M	''
_symmetry_Int_Tables_number		?
_cell_formula_units_Z			2

#Atom Coordinates
loop_
_atom_site_label
_atom_site_type_symbol
_atom_site_Wyckoff_symbol
_sm_site_symmetry
_atom_site_fract_x
_atom_site_fract_y
_atom_site_fract_z
_atom_site_occupancy
_sm_coordination_number
_sm_atomic_environment_type
? ? ? ? ? ? ? ? ? ?

