data_NbO
_audit_creation_date              2024-01-22
_audit_creation_method            'Generated by GGen'

_symmetry_space_group_name_H-M    'P m -3 m'
_symmetry_Int_Tables_number       221
_symmetry_cell_setting            cubic

_cell_length_a                    4.2103
_cell_length_b                    4.2103
_cell_length_c                    4.2103
_cell_angle_alpha                 90.00
_cell_angle_beta                  90.00
_cell_angle_gamma                 90.00

loop_
_atom_site_label
_atom_site_type_symbol
_atom_site_fract_x
_atom_site_fract_y
_atom_site_fract_z
_atom_site_occupancy
Nb1 Nb 0.00000 0.00000 0.00000 1.000
O1  O  0.50000 0.00000 0.00000 1.000
O2  O  0.00000 0.50000 0.00000 1.000
O3  O  0.00000 0.00000 0.50000 1.000
