##CIF_1.1

data_sm_global
#Used dictionaries
loop_
_audit_conform_dict_name
_audit_conform_dict_version
_audit_conform_dict_location
cif_core.dic 	2.4.2 	.
cif_pd.dic 		1.0.1 	.
cif_sm.dic 		0.1 	'redaktion.landolt-boernstein(at)springer.com'

#About this content and reference
_sm_credits_copyright
;PAULING FILE Multinaries Edition - 2012. SpringerMaterials Release 2014.
http://www.paulingfile.com
Unique LPF ID Number SD1600136
Project Coordinator: Shuichi Iwata
Section-Editors: Karin Cenzual (Crystal Structures), Hiroaki Okamoto (Phase 
Diagrams), Fritz Hulliger (Physical Properties)
(c) Springer & Material Phases Data System (MPDS), Switzerland & National 
Institute for Materials Science (NIMS), Japan 2014.
(Data generated pre-2002: (c) Springer & MPDS & NIMS; 
post-2001: (c) Springer & MPDS)
All Rights Reserved. Version 2014.06.
;

_audit_creation_method
;This data have been compiled from the crystallographic datasheet for 
"W3Nb14O44 (Nb14W3O44) Crystal Structure" 
taken from SpringerMaterials (sm_isp_sd_1600136).
;

_publ_section_references
;Roth R.S., Wadsley A.D.: <i>Multiple phase formation in the binary system Nb<sub>2</sub>O<sub>5</sub>-WO<sub>3</sub> III. The structures of the tetragonal phases W<sub>3</sub>Nb<sub>14</sub>O<sub>44</sub> and W<sub>8</sub>Nb<sub>18</sub>O<sub>69</sub></i>. Acta Crystallographica <b>19</b> (1965) 38-42.
;

#Phase classification
_sm_phase_labels				'Nb14W3O44'
_chemical_name_mineral			''
_sm_chemical_compound_class		'oxide'
_sm_phase_prototype				'(Nb0.875 W0.125 )16 WO44 '
_sm_pearson_symbol				'tI122'
_symmetry_Int_Tables_number		82
_sm_sample_details
;sample prepared from Nb<sub>2</sub>O<sub>5</sub>, WO<sub>3</sub>, 
powder (determination of cell parameters), 
single crystal, 0.002&#x00d7;0.002&#x00d7;0.05 mm<sup>3</sup> (determination of structural parameters)
;
_sm_measurement_details
;Guinier film (determination of cell parameters), 
Weissenberg photographs (determination of structural parameters), 
X-rays, Cu K&#x03b1;<sub>1</sub> (determination of cell parameters), 
X-rays, Cu K&#x03b1; (determination of structural parameters)
;
_sm_interpretation_details
;complete structure determined, 
trial-and-error, 
<i>R</i> = 0.094
;

data_sm_isp_SD1600136-standardized_unitcell
#Cell Parameters
_cell_length_a					21.02
_cell_length_b					21.02
_cell_length_c					3.824
_cell_angle_alpha				90
_cell_angle_beta				90
_cell_angle_gamma				90
_sm_length_ratio_ab				1.000
_sm_length_ratio_bc				5.497
_sm_length_ratio_ca				0.182
_cell_volume 					1689.6
_symmetry_space_group_name_H-M	'I-4'
_symmetry_Int_Tables_number		82
_cell_formula_units_Z			2
_sm_cell_transformation
;No transformation from published to standardized cell parameters necessary.
;

#Atom Coordinates
loop_
_atom_site_label
_atom_site_type_symbol
_atom_site_Wyckoff_symbol
_sm_site_symmetry
_atom_site_fract_x
_atom_site_fract_y
_atom_site_fract_z
_atom_site_occupancy
_sm_coordination_number
_sm_atomic_environment_type
O11 'O' .8g .1 0.0217 0.3436 0 1 2 'non-collinear, Nb<sub>2</sub>'
B1 '0.875Nb + 0.125W' .8g .1 0.0355 0.1237 0 1 6 'octahedron, O<sub>6</sub>'
O1 'O' .8g .1 0.0355 0.1237 0.5 1 2 'collinear, Nb<sub>2</sub>'
O10 'O' .8g .1 0.0588 0.4617 0 1 2 'non-collinear, WNb'
O2 'O' .8g .1 0.087 0.0441 0 1 2 'non-collinear, Nb<sub>2</sub>'
B4 '0.875Nb + 0.125W' .8g .1 0.1068 0.373 0 1 6 'octahedron, O<sub>6</sub>'
O3 'O' .8g .1 0.1164 0.18 0 1 2 'non-collinear, Nb<sub>2</sub>'
O8 'O' .8g .1 0.1607 0.3041 0 1 2 'non-collinear, Nb<sub>2</sub>'
O7 'O' .8g .1 0.187 0.4211 0 1 3 'non-coplanar triangle , Nb<sub>3</sub>'
B2 '0.875Nb + 0.125W' .8g .1 0.1954 0.2132 0 1 6 'octahedron, O<sub>6</sub>'
O4 'O' .8g .1 0.2149 0.0077 0 1 2 'non-collinear, Nb<sub>2</sub>'
O6 'O' .8g .1 0.2518 0.1417 0 1 2 'non-collinear, Nb<sub>2</sub>'
O5 'O' .8g .1 0.2806 0.2643 0 1 3 'non-coplanar triangle , Nb<sub>3</sub>'
B3 '0.875Nb + 0.125W' .8g .1 0.2849 0.0552 0 1 6 'octahedron, O<sub>6</sub>'
O9 'O' .8g .1 0.3748 0.107 0 1 2 'non-collinear, Nb<sub>2</sub>'
W 'W' .2c .-4.. 0 0.5 0.25 1 4 'tetrahedron, O<sub>4</sub>'

_sm_atom_site_transformation
;No transformation from published to standardized cell parameters necessary.
;

data_sm_isp_SD1600136-published_cell
#Cell Parameters
_cell_length_a					21.02
_cell_length_b					21.02
_cell_length_c					3.824
_cell_angle_alpha				90
_cell_angle_beta				90
_cell_angle_gamma				90
_sm_length_ratio_ab				1.000
_sm_length_ratio_bc				5.497
_sm_length_ratio_ca				0.182
_cell_volume 					1689.6
_symmetry_space_group_name_H-M	'I-4'
_symmetry_Int_Tables_number		82
_cell_formula_units_Z			2

#Atom Coordinates
loop_
_atom_site_label
_atom_site_type_symbol
_atom_site_Wyckoff_symbol
_sm_site_symmetry
_atom_site_fract_x
_atom_site_fract_y
_atom_site_fract_z
_atom_site_occupancy
_sm_coordination_number
_sm_atomic_environment_type
W 'W' .2c .-4.. 0 0.5 0.25 1 ? '?'
B1 '0.875Nb + 0.125W' .8g .1 0.0355(7) 0.1237(7) 0 1 ? '?'
B2 '0.875Nb + 0.125W' .8g .1 0.1954(7) 0.2132(7) 0 1 ? '?'
B3 '0.875Nb + 0.125W' .8g .1 0.2849(7) 0.0552(7) 0 1 ? '?'
B4 '0.875Nb + 0.125W' .8g .1 0.3932(7) 0.127(7) 0.5 1 ? '?'
O1 'O' .8g .1 0.0355(60) 0.1237(60) 0.5 1 ? '?'
O2 'O' .8g .1 0.087(60) 0.0441(60) 0 1 ? '?'
O3 'O' .8g .1 0.1164(60) 0.18(60) 0 1 ? '?'
O4 'O' .8g .1 0.2149(60) 0.0077(60) 0 1 ? '?'
O5 'O' .8g .1 0.2194(60) 0.2357(60) 0.5 1 ? '?'
O6 'O' .8g .1 0.2518(60) 0.1417(60) 0 1 ? '?'
O7 'O' .8g .1 0.313(60) 0.0789(60) 0.5 1 ? '?'
O8 'O' .8g .1 0.3393(60) 0.1959(60) 0.5 1 ? '?'
O9 'O' .8g .1 0.3748(60) 0.107(60) 0 1 ? '?'
O10 'O' .8g .1 0.4412(60) 0.0383(60) 0.5 1 ? '?'
O11 'O' .8g .1 0.4783(60) 0.1564(60) 0.5 1 ? '?'

data_sm_isp_SD1600136-niggli_reduced_cell
#Cell Parameters
_cell_length_a					3.824
_cell_length_b					14.9859
_cell_length_c					14.9859
_cell_angle_alpha				89.067
_cell_angle_beta				82.67
_cell_angle_gamma				82.67
_sm_length_ratio_ab				0.255
_sm_length_ratio_bc				1.000
_sm_length_ratio_ca				3.919
_cell_volume 					844.8
_symmetry_space_group_name_H-M	''
_symmetry_Int_Tables_number		?
_cell_formula_units_Z			2

#Atom Coordinates
loop_
_atom_site_label
_atom_site_type_symbol
_atom_site_Wyckoff_symbol
_sm_site_symmetry
_atom_site_fract_x
_atom_site_fract_y
_atom_site_fract_z
_atom_site_occupancy
_sm_coordination_number
_sm_atomic_environment_type
? ? ? ? ? ? ? ? ? ?

data_sm_isp_SD1600136-powder_pattern
#Powder Pattern
#Note: Powder patterns are provided using custom cif-fields!
loop_
_sm_powderpattern_unit_published_line
_sm_powderpattern_value_published_line
_sm_powderpattern_unit_computed_line
_sm_powderpattern_value_computed_line
_sm_powderpattern_intensity
_sm_powderpattern_miller_indices_h
_sm_powderpattern_miller_indices_k
_sm_powderpattern_miller_indices_l
_sm_powderpattern_radiation
_sm_powderpattern_remark
'sin<sup>2</sup>(&#x03b8;)' 0.00267 'd' 1.4907 5 1 1 0 'Cu K&#x03b1;<sub>1</sub>' ''
'sin<sup>2</sup>(&#x03b8;)' 0.01074 'd' 0.7433 5 2 2 0 'Cu K&#x03b1;<sub>1</sub>' ''
'sin<sup>2</sup>(&#x03b8;)' 0.01339 'd' 0.6657 3 3 1 0 'Cu K&#x03b1;<sub>1</sub>' ''
'sin<sup>2</sup>(&#x03b8;)' 0.02417 'd' 0.4955 4 3 3 0 'Cu K&#x03b1;<sub>1</sub>' ''
'sin<sup>2</sup>(&#x03b8;)' 0.02686 'd' 0.4700 7 4 2 0 'Cu K&#x03b1;<sub>1</sub>' ''
'sin<sup>2</sup>(&#x03b8;)' 0.04189 'd' 0.3764 8 1 0 1 'Cu K&#x03b1;<sub>1</sub>' ''
'sin<sup>2</sup>(&#x03b8;)' 0.04302 'd' 0.3714 5 4 4 0 'Cu K&#x03b1;<sub>1</sub>' ''
'sin<sup>2</sup>(&#x03b8;)' 0.04576 'd' 0.3601 9 5 3 0 'Cu K&#x03b1;<sub>1</sub>' ''
'sin<sup>2</sup>(&#x03b8;)' 0.04827 'd' 0.3506 3 6 0 0 'Cu K&#x03b1;<sub>1</sub>' ''
'sin<sup>2</sup>(&#x03b8;)' 0.05801 'd' 0.3198 5 3 2 1 'Cu K&#x03b1;<sub>1</sub>' ''
'sin<sup>2</sup>(&#x03b8;)' 0.06716 'd' 0.2972 2 7 1 0 'Cu K&#x03b1;<sub>1</sub>' ''
'sin<sup>2</sup>(&#x03b8;)' 0.06997 'd' 0.2912 3 6 4 0 'Cu K&#x03b1;<sub>1</sub>' ''
'sin<sup>2</sup>(&#x03b8;)' 0.07422 'd' 0.2827 7 5 0 1 'Cu K&#x03b1;<sub>1</sub>' ''
'sin<sup>2</sup>(&#x03b8;)' 0.07803 'd' 0.2758 3 7 3 0 'Cu K&#x03b1;<sub>1</sub>' ''
'sin<sup>2</sup>(&#x03b8;)' 0.07948 'd' 0.2732 7 5 2 1 'Cu K&#x03b1;<sub>1</sub>' ''
'sin<sup>2</sup>(&#x03b8;)' 0.09029 'd' 0.2563 3 6 1 1 'Cu K&#x03b1;<sub>1</sub>' ''
'sin<sup>2</sup>(&#x03b8;)' 0.09145 'd' 0.2547 6 8 2 0 'Cu K&#x03b1;<sub>1</sub>' ''
'sin<sup>2</sup>(&#x03b8;)' 0.09571 'd' 0.2490 3 5 4 1 'Cu K&#x03b1;<sub>1</sub>' ''
'sin<sup>2</sup>(&#x03b8;)' 0.10104 'd' 0.2423 3 6 3 1 'Cu K&#x03b1;<sub>1</sub>' ''
'sin<sup>2</sup>(&#x03b8;)' 0.11189 'd' 0.2303 5 7 2 1 'Cu K&#x03b1;<sub>1</sub>' ''
'sin<sup>2</sup>(&#x03b8;)' 0.14263 'd' 0.2040 6 9 5 0 'Cu K&#x03b1;<sub>1</sub>' ''
'sin<sup>2</sup>(&#x03b8;)' 0.16238 'd' 0.1912 6 0 0 2 'Cu K&#x03b1;<sub>1</sub>' ''

