##CIF_1.1

data_sm_global
#Used dictionaries
loop_
_audit_conform_dict_name
_audit_conform_dict_version
_audit_conform_dict_location
cif_core.dic 	2.4.2 	.
cif_pd.dic 		1.0.1 	.
cif_sm.dic 		0.1 	'redaktion.landolt-boernstein(at)springer.com'

#About this content and reference
_sm_credits_copyright
;PAULING FILE Multinaries Edition - 2012. SpringerMaterials Release 2014.
http://www.paulingfile.com
Unique LPF ID Number SD1401549
Project Coordinator: Shuichi Iwata
Section-Editors: Karin Cenzual (Crystal Structures), Hiroaki Okamoto (Phase 
Diagrams), Fritz Hulliger (Physical Properties)
(c) Springer & Material Phases Data System (MPDS), Switzerland & National 
Institute for Materials Science (NIMS), Japan 2014.
(Data generated pre-2002: (c) Springer & MPDS & NIMS; 
post-2001: (c) Springer & MPDS)
All Rights Reserved. Version 2014.06.
;

_audit_creation_method
;This data have been compiled from the crystallographic datasheet for 
"W4Nb26O77 (Nb26W4O77) Crystal Structure" 
taken from SpringerMaterials (sm_isp_sd_1401549).
;

_publ_section_references
;Allpress J.G., Sanders J.V., Wadsley A.D.: <i>Multiple phase formation in the binary system Nb<sub>2</sub>O<sub>5</sub>-WO<sub>3</sub>. VI. Electron microscopic observation and evaluation of non-periodic shear structures</i>. Acta Crystallographica, Section B: Structural Crystallography and Crystal Chemistry <b>25</b> (1969) 1156-1164.
;

#Phase classification
_sm_phase_labels				'Nb26W4O77'
_chemical_name_mineral			''
_sm_chemical_compound_class		'oxide'
_sm_phase_prototype				'(Nb0.93 W0.07 )28 W2 O77 '
_sm_pearson_symbol				'mS214'
_symmetry_Int_Tables_number		5
_sm_sample_details
;sample prepared from Nb<sub>2</sub>O<sub>5</sub>, WO<sub>3</sub>, 
single crystal (determination of cell parameters)
;
_sm_measurement_details
;X-rays (determination of cell parameters)
;
_sm_interpretation_details
;cell parameters determined and structure type assigned
;

data_sm_isp_SD1401549-standardized_unitcell
#Cell Parameters
_cell_length_a					29.74
_cell_length_b					3.82
_cell_length_c					25.97
_cell_angle_alpha				90
_cell_angle_beta				92.3
_cell_angle_gamma				90
_sm_length_ratio_ab				7.785
_sm_length_ratio_bc				0.147
_sm_length_ratio_ca				0.873
_cell_volume 					2948
_symmetry_space_group_name_H-M	'C121'
_symmetry_Int_Tables_number		5
_cell_formula_units_Z			2
_sm_cell_transformation
;No transformation from published to standardized cell parameters necessary.
;

#Atom Coordinates
loop_
_atom_site_label
_atom_site_type_symbol
_atom_site_Wyckoff_symbol
_sm_site_symmetry
_atom_site_fract_x
_atom_site_fract_y
_atom_site_fract_z
_atom_site_occupancy
_sm_coordination_number
_sm_atomic_environment_type
O1 'O' .4c .1 0 0 0.234 1 ? '?'
M1 '0.930Nb + 0.070W' .4c .1 0 0.5 0.2665 1 ? '?'
O2 'O' .4c .1 0.022 0.5 0.339 1 ? '?'
O3 'O' .4c .1 0.04 0 0.15 1 ? '?'
O4 'O' .4c .1 0.042 0 0.409 1 ? '?'
M2 '0.930Nb + 0.070W' .4c .1 0.0422 0.5 0.4088 1 ? '?'
O5 'O' .4c .1 0.064 0.5 0.241 1 ? '?'
O6 'O' .4c .1 0.08 0 0.549 1 ? '?'
O7 'O' .4c .1 0.083 0 0.05 1 ? '?'
M3 '0.930Nb + 0.070W' .4c .1 0.1 0 0.1222 1 ? '?'
O8 'O' .4c .1 0.102 0.5 0.149 1 ? '?'
O9 'O' .4c .1 0.103 0.5 0.381 1 ? '?'
O10 'O' .4c .1 0.122 0 0.201 1 ? '?'
M4 '0.930Nb + 0.070W' .4c .1 0.1242 0.5 0.2244 1 ? '?'
O11 'O' .4c .1 0.15 0.5 0.295 1 ? '?'
M5 '0.930Nb + 0.070W' .4c .1 0.164 0.5 0.3687 1 ? '?'
O12 'O' .4c .1 0.167 0 0.108 1 ? '?'
O13 'O' .4c .1 0.186 0.5 0.189 1 ? '?'
O14 'O' .4c .1 0.194 0 0.371 1 ? '?'
O15 'O' .4c .1 0.206 0 0.008 1 ? '?'
M6 '0.930Nb + 0.070W' .4c .1 0.222 0 0.0797 1 ? '?'
O16 'O' .4c .1 0.229 0 0.273 1 ? '?'
O17 'O' .4c .1 0.229 0 0.513 1 ? '?'
O18 'O' .4c .1 0.237 0.5 0.345 1 ? '?'
W1 'W' .4c .1 0.241 0.25 0.2124 1 ? '?'
O19 'O' .4c .1 0.245 0.5 0.077 1 ? '?'
O20 'O' .4c .1 0.247 0 0.156 1 ? '?'
M7 '0.930Nb + 0.070W' .4c .1 0.2535 0 0.3487 1 ? '?'
O21 'O' .4c .1 0.271 0 0.42 1 ? '?'
O22 'O' .4c .1 0.287 0.5 0.239 1 ? '?'
O23 'O' .4c .1 0.289 0 0.056 1 ? '?'
M8 '0.930Nb + 0.070W' .4c .1 0.2945 0 0.4919 1 ? '?'
O24 'O' .4c .1 0.313 0 0.563 1 ? '?'
M9 '0.930Nb + 0.070W' .4c .1 0.314 0.5 0.0619 1 ? '?'
O25 'O' .4c .1 0.316 0 0.321 1 ? '?'
O26 'O' .4c .1 0.333 0.5 0.136 1 ? '?'
O27 'O' .4c .1 0.356 0 0.472 1 ? '?'
M10 '0.930Nb + 0.070W' .4c .1 0.356 0.5 0.2034 1 ? '?'
O28 'O' .4c .1 0.36 0 0.22 1 ? '?'
O29 'O' .4c .1 0.375 0.5 0.044 1 ? '?'
O30 'O' .4c .1 0.377 0.5 0.276 1 ? '?'
M11 '0.930Nb + 0.070W' .4c .1 0.378 0 0.3076 1 ? '?'
O31 'O' .4c .1 0.4 0 0.378 1 ? '?'
O32 'O' .4c .1 0.413 0.5 0.191 1 ? '?'
M12 '0.930Nb + 0.070W' .4c .1 0.42 0 0.4509 1 ? '?'
O33 'O' .4c .1 0.439 0 0.282 1 ? '?'
M13 '0.930Nb + 0.070W' .4c .1 0.4395 0.5 0.0195 1 ? '?'
O34 'O' .4c .1 0.44 0 0.02 1 ? '?'
O35 'O' .4c .1 0.442 0 0.518 1 ? '?'
O36 'O' .4c .1 0.458 0.5 0.094 1 ? '?'
O37 'O' .4c .1 0.478 0 0.428 1 ? '?'
M14 '0.930Nb + 0.070W' .4c .1 0.4785 0.5 0.1633 1 ? '?'
O38 'O' .4c .1 0.482 0 0.185 1 ? '?'
O39 'O' .2a .2 0 0 0 1 ? '?'

_sm_atom_site_transformation
;No transformation from published to standardized cell parameters necessary.
Atom coordinates assigned by editor.
;

data_sm_isp_SD1401549-published_cell
#Cell Parameters
_cell_length_a					29.74
_cell_length_b					3.82(1)
_cell_length_c					25.97
_cell_angle_alpha				90
_cell_angle_beta				92.3
_cell_angle_gamma				90
_sm_length_ratio_ab				7.785
_sm_length_ratio_bc				0.147
_sm_length_ratio_ca				0.873
_cell_volume 					2947.99
_symmetry_space_group_name_H-M	'C121'
_symmetry_Int_Tables_number		5
_cell_formula_units_Z			2

#Atom Coordinates
loop_
_atom_site_label
_atom_site_type_symbol
_atom_site_Wyckoff_symbol
_sm_site_symmetry
_atom_site_fract_x
_atom_site_fract_y
_atom_site_fract_z
_atom_site_occupancy
_sm_coordination_number
_sm_atomic_environment_type
? ? ? ? ? ? ? ? ? ?

data_sm_isp_SD1401549-niggli_reduced_cell
#Cell Parameters
_cell_length_a					3.82
_cell_length_b					14.9922
_cell_length_c					25.97
_cell_angle_alpha				92.281
_cell_angle_beta				90
_cell_angle_gamma				97.319
_sm_length_ratio_ab				0.255
_sm_length_ratio_bc				0.577
_sm_length_ratio_ca				6.798
_cell_volume 					1474
_symmetry_space_group_name_H-M	''
_symmetry_Int_Tables_number		?
_cell_formula_units_Z			2

#Atom Coordinates
loop_
_atom_site_label
_atom_site_type_symbol
_atom_site_Wyckoff_symbol
_sm_site_symmetry
_atom_site_fract_x
_atom_site_fract_y
_atom_site_fract_z
_atom_site_occupancy
_sm_coordination_number
_sm_atomic_environment_type
? ? ? ? ? ? ? ? ? ?

