##CIF_1.1

data_sm_global
#Used dictionaries
loop_
_audit_conform_dict_name
_audit_conform_dict_version
_audit_conform_dict_location
cif_core.dic 	2.4.2 	.
cif_pd.dic 		1.0.1 	.
cif_sm.dic 		0.1 	'redaktion.landolt-boernstein(at)springer.com'

#About this content and reference
_sm_credits_copyright
;PAULING FILE Multinaries Edition - 2012. SpringerMaterials Release 2014.
http://www.paulingfile.com
Unique LPF ID Number SD1600135
Project Coordinator: Shuichi Iwata
Section-Editors: Karin Cenzual (Crystal Structures), Hiroaki Okamoto (Phase 
Diagrams), Fritz Hulliger (Physical Properties)
(c) Springer & Material Phases Data System (MPDS), Switzerland & National 
Institute for Materials Science (NIMS), Japan 2014.
(Data generated pre-2002: (c) Springer & MPDS & NIMS; 
post-2001: (c) Springer & MPDS)
All Rights Reserved. Version 2014.06.
;

_audit_creation_method
;This data have been compiled from the crystallographic datasheet for 
"W5Nb16O55 (Nb16W5O55) Crystal Structure" 
taken from SpringerMaterials (sm_isp_sd_1600135).
;

_publ_section_references
;Roth R.S., Wadsley A.D.: <i>Multiple phase formation in the binary system Nb<sub>2</sub>O<sub>5</sub>-WO<sub>3</sub>. II. The structure of the monoclinic phases WNb<sub>12</sub>O<sub>33</sub> and W<sub>5</sub>Nb<sub>16</sub>O<sub>55</sub></i>. Acta Crystallographica <b>19</b> (1965) 32-38.
;

#Phase classification
_sm_phase_labels				'Nb16W5O55'
_chemical_name_mineral			''
_sm_chemical_compound_class		'oxide'
_sm_phase_prototype				'(Nb0.8 W0.2 )20 WO55 '
_sm_pearson_symbol				'mS152'
_symmetry_Int_Tables_number		5
_sm_sample_details
;sample prepared from Nb<sub>2</sub>O<sub>5</sub>, WO<sub>3</sub>, 
single crystal (determination of cell parameters), 
single crystal, 0.005&#x00d7;0.005&#x00d7;0.1 mm<sup>3</sup> (determination of structural parameters)
;
_sm_measurement_details
;Guinier film (determination of cell parameters), 
Weissenberg photographs (determination of structural parameters), 
X-rays, Cu K&#x03b1;<sub>1</sub> (determination of cell parameters), 
X-rays, Cu K&#x03b1; (determination of structural parameters)
;
_sm_interpretation_details
;complete structure determined, 
trial-and-error, 
<i>R</i> = 0.123
;

data_sm_isp_SD1600135-standardized_unitcell
#Cell Parameters
_cell_length_a					29.79
_cell_length_b					3.82
_cell_length_c					23.08
_cell_angle_alpha				90
_cell_angle_beta				126.5
_cell_angle_gamma				90
_sm_length_ratio_ab				7.798
_sm_length_ratio_bc				0.166
_sm_length_ratio_ca				0.775
_cell_volume 					2111.3
_symmetry_space_group_name_H-M	'C121'
_symmetry_Int_Tables_number		5
_cell_formula_units_Z			2
_sm_cell_transformation
;-x,-y,-z; origin shift 0 0.50000 1/2
;

#Atom Coordinates
loop_
_atom_site_label
_atom_site_type_symbol
_atom_site_Wyckoff_symbol
_sm_site_symmetry
_atom_site_fract_x
_atom_site_fract_y
_atom_site_fract_z
_atom_site_occupancy
_sm_coordination_number
_sm_atomic_environment_type
O15 'O' .4c .1 0.016 0 0.1321 1 2 'non-collinear, Nb<sub>2</sub>'
B10 '0.8Nb + 0.2W' .4c .1 0.0188 0 0.7161 1 6 'octahedron, O<sub>6</sub>'
O11 'O' .4c .1 0.028 0 0.2548 1 2 'non-collinear, Nb<sub>2</sub>'
O6 'O' .4c .1 0.0361 0 0.3848 1 2 'non-collinear, Nb<sub>2</sub>'
O28 'O' .4c .1 0.0617 0 0.5241 1 2 'non-collinear, WNb'
O25 'O' .4c .1 0.0702 0 0.6889 1 1 'single atom, Nb'
B5 '0.8Nb + 0.2W' .4c .1 0.0786 0 0.2253 1 6 'octahedron, O<sub>6</sub>'
O24 'O' .4c .1 0.0786 0.5 0.2253 1 2 'collinear, Nb<sub>2</sub>'
B1 '0.8Nb + 0.2W' .4c .1 0.1096 0 0.4848 1 6 'octahedron, O<sub>6</sub>'
O17 'O' .4c .1 0.1133 0 0.0682 1 2 'non-collinear, Nb<sub>2</sub>'
O13 'O' .4c .1 0.1275 0 0.1959 1 2 'non-collinear, Nb<sub>2</sub>'
O8 'O' .4c .1 0.1443 0 0.3349 1 2 'non-collinear, Nb<sub>2</sub>'
O3 'O' .4c .1 0.1578 0 0.4597 1 2 'non-collinear, Nb<sub>2</sub>'
O26 'O' .4c .1 0.1699 0 0.5935 1 3 'non-coplanar triangle , Nb<sub>3</sub>'
B6 '0.8Nb + 0.2W' .4c .1 0.175 0 0.1689 1 6 'octahedron, O<sub>6</sub>'
O22 'O' .4c .1 0.175 0.5 0.1689 1 2 'collinear, Nb<sub>2</sub>'
B2 '0.8Nb + 0.2W' .4c .1 0.2069 0 0.4268 1 6 'octahedron, O<sub>6</sub>'
O19 'O' .4c .1 0.221 0 0.0148 1 2 'non-collinear, Nb<sub>2</sub>'
O14 'O' .4c .1 0.2314 0 0.1495 1 2 'non-collinear, Nb<sub>2</sub>'
O10 'O' .4c .1 0.2394 0 0.2719 1 2 'non-collinear, Nb<sub>2</sub>'
O5 'O' .4c .1 0.259 0 0.4021 1 2 'non-collinear, Nb<sub>2</sub>'
B7 '0.8Nb + 0.2W' .4c .1 0.2744 0 0.1132 1 6 'octahedron, O<sub>6</sub>'
O27 'O' .4c .1 0.2783 0 0.5395 1 3 'non-coplanar triangle , Nb<sub>3</sub>'
O21 'O' .4c .1 0.2976 0.5 0.1049 1 1 'single atom, Nb'
B3 '0.8Nb + 0.2W' .4c .1 0.305 0 0.3702 1 6 'octahedron, O<sub>6</sub>'
O16 'O' .4c .1 0.3305 0 0.0886 1 3 'non-coplanar triangle , Nb<sub>3</sub>'
O12 'O' .4c .1 0.3409 0 0.2108 1 2 'non-collinear, Nb<sub>2</sub>'
B9 '0.8Nb + 0.2W' .4c .1 0.3528 0.5 0.0855 1 6 'octahedron, O<sub>6</sub>'
O7 'O' .4c .1 0.358 0 0.3492 1 2 'non-collinear, Nb<sub>2</sub>'
O2 'O' .4c .1 0.3747 0 0.48 1 3 'non-coplanar triangle , Nb<sub>3</sub>'
O20 'O' .4c .1 0.3965 0.5 0.0493 1 2 'non-collinear, Nb<sub>2</sub>'
B4 '0.8Nb + 0.2W' .4c .1 0.4041 0 0.3136 1 6 'octahedron, O<sub>6</sub>'
O23 'O' .4c .1 0.4114 0.5 0.1845 1 2 'non-collinear, Nb<sub>2</sub>'
O18 'O' .4c .1 0.4519 0 0.0277 1 2 'collinear, Nb<sub>2</sub>'
B8 '0.8Nb + 0.2W' .4c .1 0.4519 0.5 0.0277 1 6 'octahedron, O<sub>6</sub>'
O9 'O' .4c .1 0.4601 0 0.2965 1 1 'single atom, Nb'
O4 'O' .4c .1 0.4682 0 0.4208 1 2 'non-collinear, WNb'
W 'W' .2b .2 0 0.25 0.5 1 4 'tetrahedron, O<sub>4</sub>'
O1 'O' .2a .2 0 0 0 1 2 'collinear, Nb<sub>2</sub>'

_sm_atom_site_transformation
;-x,-y,-z; origin shift 0 0.50000 1/2
;

data_sm_isp_SD1600135-published_cell
#Cell Parameters
_cell_length_a					29.79
_cell_length_b					3.82
_cell_length_c					23.08
_cell_angle_alpha				90
_cell_angle_beta				126.5
_cell_angle_gamma				90
_sm_length_ratio_ab				7.798
_sm_length_ratio_bc				0.166
_sm_length_ratio_ca				0.775
_cell_volume 					2111.29
_symmetry_space_group_name_H-M	'C121'
_symmetry_Int_Tables_number		5
_cell_formula_units_Z			2

#Atom Coordinates
loop_
_atom_site_label
_atom_site_type_symbol
_atom_site_Wyckoff_symbol
_sm_site_symmetry
_atom_site_fract_x
_atom_site_fract_y
_atom_site_fract_z
_atom_site_occupancy
_sm_coordination_number
_sm_atomic_environment_type
W 'W' .2a .2 0 0.25 0 1 ? '?'
B1 '0.8Nb + 0.2W' .4c .1 0.3904(2) 0 0.0152(3) 1 ? '?'
B2 '0.8Nb + 0.2W' .4c .1 0.2931(2) 0 0.0732(3) 1 ? '?'
B3 '0.8Nb + 0.2W' .4c .1 0.195(2) 0 0.1298(3) 1 ? '?'
B4 '0.8Nb + 0.2W' .4c .1 0.0959(2) 0 0.1864(3) 1 ? '?'
B5 '0.8Nb + 0.2W' .4c .1 0.4214(2) 0 0.2747(3) 1 ? '?'
B6 '0.8Nb + 0.2W' .4c .1 0.325(2) 0 0.3311(3) 1 ? '?'
B7 '0.8Nb + 0.2W' .4c .1 0.2256(2) 0 0.3868(3) 1 ? '?'
B8 '0.8Nb + 0.2W' .4c .1 0.4519(2) 0 0.5277(3) 1 ? '?'
B9 '0.8Nb + 0.2W' .4c .1 0.3528(2) 0 0.5855(3) 1 ? '?'
B10 '0.8Nb + 0.2W' .4c .1 0.4812(2) 0 0.7839(3) 1 ? '?'
O1 'O' .2b .2 0 0.5 0.5 1 ? '?'
O2 'O' .4c .1 0.1253(18) 0 0.02(23) 1 ? '?'
O3 'O' .4c .1 0.3422(18) 0 0.0403(23) 1 ? '?'
O4 'O' .4c .1 0.0318(18) 0 0.0792(23) 1 ? '?'
O5 'O' .4c .1 0.241(18) 0 0.0979(23) 1 ? '?'
O6 'O' .4c .1 0.4639(18) 0 0.1152(23) 1 ? '?'
O7 'O' .4c .1 0.142(18) 0 0.1508(23) 1 ? '?'
O8 'O' .4c .1 0.3557(18) 0 0.1651(23) 1 ? '?'
O9 'O' .4c .1 0.0399(18) 0 0.2035(23) 1 ? '?'
O10 'O' .4c .1 0.2606(18) 0 0.2281(23) 1 ? '?'
O11 'O' .4c .1 0.472(18) 0 0.2452(23) 1 ? '?'
O12 'O' .4c .1 0.1591(18) 0 0.2892(23) 1 ? '?'
O13 'O' .4c .1 0.3725(18) 0 0.3041(23) 1 ? '?'
O14 'O' .4c .1 0.2686(18) 0 0.3505(23) 1 ? '?'
O15 'O' .4c .1 0.484(18) 0 0.3679(23) 1 ? '?'
O16 'O' .4c .1 0.1695(18) 0 0.4114(23) 1 ? '?'
O17 'O' .4c .1 0.3867(18) 0 0.4318(23) 1 ? '?'
O18 'O' .4c .1 0.0481(18) 0 0.4723(23) 1 ? '?'
O19 'O' .4c .1 0.279(18) 0 0.4852(23) 1 ? '?'
O20 'O' .4c .1 0.3965(18) 0 0.5493(23) 1 ? '?'
O21 'O' .4c .1 0.2976(18) 0 0.6049(23) 1 ? '?'
O22 'O' .4c .1 0.175(18) 0 0.6689(23) 1 ? '?'
O23 'O' .4c .1 0.4114(18) 0 0.6845(23) 1 ? '?'
O24 'O' .4c .1 0.0786(18) 0 0.7253(23) 1 ? '?'
O25 'O' .4c .1 0.4298(18) 0 0.8111(23) 1 ? '?'
O26 'O' .4c .1 0.3301(18) 0 0.9065(23) 1 ? '?'
O27 'O' .4c .1 0.2217(18) 0 0.9605(23) 1 ? '?'
O28 'O' .4c .1 0.4383(18) 0 0.9759(23) 1 ? '?'

data_sm_isp_SD1600135-niggli_reduced_cell
#Cell Parameters
_cell_length_a					3.82
_cell_length_b					15.017
_cell_length_c					18.6875
_cell_angle_alpha				85.704
_cell_angle_beta				84.134
_cell_angle_gamma				82.693
_sm_length_ratio_ab				0.254
_sm_length_ratio_bc				0.804
_sm_length_ratio_ca				4.892
_cell_volume 					1055.65
_symmetry_space_group_name_H-M	''
_symmetry_Int_Tables_number		?
_cell_formula_units_Z			2

#Atom Coordinates
loop_
_atom_site_label
_atom_site_type_symbol
_atom_site_Wyckoff_symbol
_sm_site_symmetry
_atom_site_fract_x
_atom_site_fract_y
_atom_site_fract_z
_atom_site_occupancy
_sm_coordination_number
_sm_atomic_environment_type
? ? ? ? ? ? ? ? ? ?

data_sm_isp_SD1600135-powder_pattern
#Powder Pattern
#Note: Powder patterns are provided using custom cif-fields!
loop_
_sm_powderpattern_unit_published_line
_sm_powderpattern_value_published_line
_sm_powderpattern_unit_computed_line
_sm_powderpattern_value_computed_line
_sm_powderpattern_intensity
_sm_powderpattern_miller_indices_h
_sm_powderpattern_miller_indices_k
_sm_powderpattern_miller_indices_l
_sm_powderpattern_radiation
_sm_powderpattern_remark
'sin<sup>2</sup>(&#x03b8;)' 0.00266 'd' 1.4935 4 2 0 -1 'Cu K&#x03b1;<sub>1</sub>' ''
'sin<sup>2</sup>(&#x03b8;)' 0.00687 'd' 0.9293 1 0 0 2 'Cu K&#x03b1;<sub>1</sub>' ''
'sin<sup>2</sup>(&#x03b8;)' 0.01073 'd' 0.7436 5 4 0 -2 'Cu K&#x03b1;<sub>1</sub>' ''
'sin<sup>2</sup>(&#x03b8;)' 0.01305 'd' 0.6743 2 4 0 -3 'Cu K&#x03b1;<sub>1</sub>' ''
'sin<sup>2</sup>(&#x03b8;)' 0.01540 'd' 0.6207 1 0 0 3 'Cu K&#x03b1;<sub>1</sub>' ''
'sin<sup>2</sup>(&#x03b8;)' 0.01702 'd' 0.5904 1 2 0 2 'Cu K&#x03b1;<sub>1</sub>' ''
'sin<sup>2</sup>(&#x03b8;)' 0.02427 'd' 0.4944 4 6 0 -3 'Cu K&#x03b1;<sub>1</sub>' ''
'sin<sup>2</sup>(&#x03b8;)' 0.02688 'd' 0.4698 6 6 0 -4 'Cu K&#x03b1;<sub>1</sub>' ''
'sin<sup>2</sup>(&#x03b8;)' 0.02911 'd' 0.4515 4 2 0 3 'Cu K&#x03b1;<sub>1</sub>' ''
'sin<sup>2</sup>(&#x03b8;)' 0.04184 'd' 0.3766 9 1 1 0 'Cu K&#x03b1;<sub>1</sub>' 'additional indices 1 1 -1'
'sin<sup>2</sup>(&#x03b8;)' 0.04307 'd' 0.3712 3 8 0 -4 'Cu K&#x03b1;<sub>1</sub>' 'additional indices 0 0 5'
'sin<sup>2</sup>(&#x03b8;)' 0.04441 'd' 0.3655 7 2 0 4 'Cu K&#x03b1;<sub>1</sub>' ''
'sin<sup>2</sup>(&#x03b8;)' 0.04505 'd' 0.3629 4 1 1 1 'Cu K&#x03b1;<sub>1</sub>' ''
'sin<sup>2</sup>(&#x03b8;)' 0.04576 'd' 0.3601 8 8 0 -5 'Cu K&#x03b1;<sub>1</sub>' ''
'sin<sup>2</sup>(&#x03b8;)' 0.05006 'd' 0.3443 5 3 1 0 'Cu K&#x03b1;<sub>1</sub>' ''
'sin<sup>2</sup>(&#x03b8;)' 0.05824 'd' 0.3192 5 5 1 -3 'Cu K&#x03b1;<sub>1</sub>' ''

