##CIF_1.1

data_sm_global
#Used dictionaries
loop_
_audit_conform_dict_name
_audit_conform_dict_version
_audit_conform_dict_location
cif_core.dic 	2.4.2 	.
cif_pd.dic 		1.0.1 	.
cif_sm.dic 		0.1 	'redaktion.landolt-boernstein(at)springer.com'

#About this content and reference
_sm_credits_copyright
;PAULING FILE Multinaries Edition - 2012. SpringerMaterials Release 2014.
http://www.paulingfile.com
Unique LPF ID Number SD1925776
Project Coordinator: Shuichi Iwata
Section-Editors: Karin Cenzual (Crystal Structures), Hiroaki Okamoto (Phase 
Diagrams), Fritz Hulliger (Physical Properties)
(c) Springer & Material Phases Data System (MPDS), Switzerland & National 
Institute for Materials Science (NIMS), Japan 2014.
(Data generated pre-2002: (c) Springer & MPDS & NIMS; 
post-2001: (c) Springer & MPDS)
All Rights Reserved. Version 2014.06.
;

_audit_creation_method
;This data have been compiled from the crystallographic datasheet for 
"W8Nb18O69 (Nb18W8O69) Crystal Structure" 
taken from SpringerMaterials (sm_isp_sd_1925776).
;

_publ_section_references
;Cava R.J., Murphy D.W., Zahurak S.M.: <i>Lithium Insertion in Wadsley-Roth Phases Based on Niobium Oxide</i>. Journal of the Electrochemical Society <b>130</b> (1983) 2345-2351.
;

#Phase classification
_sm_phase_labels				'Nb18W8O69'
_chemical_name_mineral			''
_sm_chemical_compound_class		'oxide'
_sm_phase_prototype				'(Nb0.72 W0.28 )25 WO69 '
_sm_pearson_symbol				'tI190'
_symmetry_Int_Tables_number		82
_sm_sample_details
;powder (determination of cell parameters)
;
_sm_measurement_details
;X-rays, Cu K&#x03b1; (determination of cell parameters)
;
_sm_interpretation_details
;cell parameters determined and structure type assigned
;

data_sm_isp_SD1925776-standardized_unitcell
#Cell Parameters
_cell_length_a					26.27
_cell_length_b					26.27
_cell_length_c					3.814
_cell_angle_alpha				90
_cell_angle_beta				90
_cell_angle_gamma				90
_sm_length_ratio_ab				1.000
_sm_length_ratio_bc				6.888
_sm_length_ratio_ca				0.145
_cell_volume 					2632.1
_symmetry_space_group_name_H-M	'I-4'
_symmetry_Int_Tables_number		82
_cell_formula_units_Z			2
_sm_cell_transformation
;No transformation from published to standardized cell parameters necessary.
;

#Atom Coordinates
loop_
_atom_site_label
_atom_site_type_symbol
_atom_site_Wyckoff_symbol
_sm_site_symmetry
_atom_site_fract_x
_atom_site_fract_y
_atom_site_fract_z
_atom_site_occupancy
_sm_coordination_number
_sm_atomic_environment_type
O1 'O' .8g .1 0.027 0.375 0 1 ? '?'
M1 '0.720Nb + 0.280W' .8g .1 0.0448 0.2015 0 1 ? '?'
O2 'O' .8g .1 0.045 0.201 0.5 1 ? '?'
O3 'O' .8g .1 0.052 0.477 0 1 ? '?'
O4 'O' .8g .1 0.064 0.045 0 1 ? '?'
O5 'O' .8g .1 0.081 0.144 0 1 ? '?'
M2 '0.720Nb + 0.280W' .8g .1 0.0908 0.405 0 1 ? '?'
O6 'O' .8g .1 0.111 0.249 0 1 ? '?'
M3 '0.720Nb + 0.280W' .8g .1 0.123 0.078 0 1 ? '?'
O7 'O' .8g .1 0.123 0.078 0.5 1 ? '?'
O8 'O' .8g .1 0.127 0.351 0 1 ? '?'
O9 'O' .8g .1 0.157 0.455 0 1 ? '?'
O10 'O' .8g .1 0.162 0.02 0 1 ? '?'
M4 '0.720Nb + 0.280W' .8g .1 0.1692 0.2806 0 1 ? '?'
O11 'O' .8g .1 0.189 0.125 0 1 ? '?'
O12 'O' .8g .1 0.221 0.22 0 1 ? '?'
O13 'O' .8g .1 0.24 0.328 0 1 ? '?'
M5 '0.720Nb + 0.280W' .8g .1 0.2474 0.1566 0 1 ? '?'
O14 'O' .8g .1 0.27 0.002 0 1 ? '?'
O15 'O' .8g .1 0.294 0.099 0 1 ? '?'
O16 'O' .8g .1 0.319 0.205 0 1 ? '?'
M6 '0.720Nb + 0.280W' .8g .1 0.3259 0.0338 0 1 ? '?'
O17 'O' .8g .1 0.398 0.077 0 1 ? '?'
W1 'W' .2c .-4.. 0 0.5 0.25 1 ? '?'
O18 'O' .2b .-4.. 0 0 0.5 1 ? '?'
M7 '0.720Nb + 0.280W' .2a .-4.. 0 0 0 1 ? '?'

_sm_atom_site_transformation
;No transformation from published to standardized cell parameters necessary.
Atom coordinates assigned by editor.
;

data_sm_isp_SD1925776-published_cell
#Cell Parameters
_cell_length_a					26.27
_cell_length_b					26.27
_cell_length_c					3.814
_cell_angle_alpha				90
_cell_angle_beta				90
_cell_angle_gamma				90
_sm_length_ratio_ab				1.000
_sm_length_ratio_bc				6.888
_sm_length_ratio_ca				0.145
_cell_volume 					2632.09
_symmetry_space_group_name_H-M	'I-4'
_symmetry_Int_Tables_number		82
_cell_formula_units_Z			2

#Atom Coordinates
loop_
_atom_site_label
_atom_site_type_symbol
_atom_site_Wyckoff_symbol
_sm_site_symmetry
_atom_site_fract_x
_atom_site_fract_y
_atom_site_fract_z
_atom_site_occupancy
_sm_coordination_number
_sm_atomic_environment_type
? ? ? ? ? ? ? ? ? ?

data_sm_isp_SD1925776-niggli_reduced_cell
#Cell Parameters
_cell_length_a					3.814
_cell_length_b					18.6733
_cell_length_c					18.6733
_cell_angle_alpha				89.402
_cell_angle_beta				84.139
_cell_angle_gamma				84.138
_sm_length_ratio_ab				0.204
_sm_length_ratio_bc				1.000
_sm_length_ratio_ca				4.896
_cell_volume 					1316.04
_symmetry_space_group_name_H-M	''
_symmetry_Int_Tables_number		?
_cell_formula_units_Z			2

#Atom Coordinates
loop_
_atom_site_label
_atom_site_type_symbol
_atom_site_Wyckoff_symbol
_sm_site_symmetry
_atom_site_fract_x
_atom_site_fract_y
_atom_site_fract_z
_atom_site_occupancy
_sm_coordination_number
_sm_atomic_environment_type
? ? ? ? ? ? ? ? ? ?

